SPU125_glm/Loads_SPU125.glm
//**Loads_SPU125:


object load {
	 parent 500-230227;
	 name LOAD_389-1254410-0;
	 phases ABCN;
	 base_power_A 0.000000;
	 base_power_B 0.000000;
	 base_power_C 0.000000;
	 power_pf_A 0.000000;
	 current_pf_A 0.000000;
	 impedance_pf_A 0.000000;
	 power_pf_B 0.000000;
	 current_pf_B 0.000000;
	 impedance_pf_B 0.000000;
	 power_pf_C 0.000000;
	 current_pf_C 0.000000;
	 impedance_pf_C 0.000000;
	 power_fraction_A 0.50;
	 current_fraction_A 0.10;
	 impedance_fraction_A 0.40;
	 power_fraction_B 0.50;
	 current_fraction_B 0.10;
	 impedance_fraction_B 0.40;
	 power_fraction_C 0.50;
	 current_fraction_C 0.10;
	 impedance_fraction_C 0.40;
	 nominal_voltage 7970.00;
}


object load {
	 parent 406-905990;
	 name LOAD_389-1459981-0;
	 phases ABCN;
	 base_power_A 5000000.000000;
	 base_power_B 5000000.000000;
	 base_power_C 5000000.000000;
	 power_pf_A 1.000000;
	 current_pf_A 1.000000;
	 impedance_pf_A 1.000000;
	 power_pf_B 1.000000;
	 current_pf_B 1.000000;
	 impedance_pf_B 1.000000;
	 power_pf_C 1.000000;
	 current_pf_C 1.000000;
	 impedance_pf_C 1.000000;
	 power_fraction_A 0.50;
	 current_fraction_A 0.10;
	 impedance_fraction_A 0.40;
	 power_fraction_B 0.50;
	 current_fraction_B 0.10;
	 impedance_fraction_B 0.40;
	 power_fraction_C 0.50;
	 current_fraction_C 0.10;
	 impedance_fraction_C 0.40;
	 nominal_voltage 2401.78;
}


object load {
	 parent 409-401941;
	 name LOAD_389-1901581-1;
	 phases ABCN;
	 base_power_A 0.000000;
	 base_power_B 0.000000;
	 base_power_C 0.000000;
	 power_pf_A 0.000000;
	 current_pf_A 0.000000;
	 impedance_pf_A 0.000000;
	 power_pf_B 0.000000;
	 current_pf_B 0.000000;
	 impedance_pf_B 0.000000;
	 power_pf_C 0.000000;
	 current_pf_C 0.000000;
	 impedance_pf_C 0.000000;
	 power_fraction_A 0.50;
	 current_fraction_A 0.10;
	 impedance_fraction_A 0.40;
	 power_fraction_B 0.50;
	 current_fraction_B 0.10;
	 impedance_fraction_B 0.40;
	 power_fraction_C 0.50;
	 current_fraction_C 0.10;
	 impedance_fraction_C 0.40;
	 nominal_voltage 2401.78;
}


object load {
	 parent 403-1203449;
	 name LOAD_389-3024801-0;
	 phases ABCN;
	 base_power_A 0.000000;
	 base_power_B 0.000000;
	 base_power_C 0.000000;
	 power_pf_A 0.000000;
	 current_pf_A 0.000000;
	 impedance_pf_A 0.000000;
	 power_pf_B 0.000000;
	 current_pf_B 0.000000;
	 impedance_pf_B 0.000000;
	 power_pf_C 0.000000;
	 current_pf_C 0.000000;
	 impedance_pf_C 0.000000;
	 power_fraction_A 0.50;
	 current_fraction_A 0.10;
	 impedance_fraction_A 0.40;
	 power_fraction_B 0.50;
	 current_fraction_B 0.10;
	 impedance_fraction_B 0.40;
	 power_fraction_C 0.50;
	 current_fraction_C 0.10;
	 impedance_fraction_C 0.40;
	 nominal_voltage 7970.00;
}


object load {
	 parent 392-89014;
	 name LOAD_389-3024906-0;
	 phases ABCN;
	 base_power_A 0.000000;
	 base_power_B 0.000000;
	 base_power_C 0.000000;
	 power_pf_A 0.000000;
	 current_pf_A 0.000000;
	 impedance_pf_A 0.000000;
	 power_pf_B 0.000000;
	 current_pf_B 0.000000;
	 impedance_pf_B 0.000000;
	 power_pf_C 0.000000;
	 current_pf_C 0.000000;
	 impedance_pf_C 0.000000;
	 power_fraction_A 0.50;
	 current_fraction_A 0.10;
	 impedance_fraction_A 0.40;
	 power_fraction_B 0.50;
	 current_fraction_B 0.10;
	 impedance_fraction_B 0.40;
	 power_fraction_C 0.50;
	 current_fraction_C 0.10;
	 impedance_fraction_C 0.40;
	 nominal_voltage 7970.00;
}


//**End Loads_SPU125** 