SPU125_glm/Node_SPU125.glm
//**Nodes forSPU125:


object node {
	 name 390-59546;
	 phases ABCN;
	 nominal_voltage 7970.00;
	 voltage_A 7970.00+0d;
	 voltage_B 7970.00-120.0d;
	 voltage_C 7970.00+120.0d;
	 bustype PQ;
}


object node {
	 name 390-59548;
	 phases ABCN;
	 nominal_voltage 7970.00;
	 voltage_A 7970.00+0d;
	 voltage_B 7970.00-120.0d;
	 voltage_C 7970.00+120.0d;
	 bustype PQ;
}


object node {
	 name 392-106294;
	 phases ABC;
	 nominal_voltage 2401.78;
	 voltage_A 2401.78+0d;
	 voltage_B 2401.78-120.0d;
	 voltage_C 2401.78+120.0d;
	 bustype PQ;
}


object node {
	 name 392-106314;
	 phases ABC;
	 nominal_voltage 2401.78;
	 voltage_A 2401.78+0d;
	 voltage_B 2401.78-120.0d;
	 voltage_C 2401.78+120.0d;
	 bustype PQ;
}


object node {
	 name 392-89014;
	 phases ABCN;
	 nominal_voltage 7970.00;
	 voltage_A 7970.00+0d;
	 voltage_B 7970.00-120.0d;
	 voltage_C 7970.00+120.0d;
	 bustype PQ;
}


object node {
	 name 392-89655;
	 phases ABCN;
	 nominal_voltage 7970.00;
	 voltage_A 7970.00+0d;
	 voltage_B 7970.00-120.0d;
	 voltage_C 7970.00+120.0d;
	 bustype PQ;
}


object node {
	 name 396-67860;
	 phases ABCN;
	 nominal_voltage 2401.78;
	 voltage_A 2401.78+0d;
	 voltage_B 2401.78-120.0d;
	 voltage_C 2401.78+120.0d;
	 bustype PQ;
}


object node {
	 name 402-619382;
	 phases ABCN;
	 nominal_voltage 2401.78;
	 voltage_A 2401.78+0d;
	 voltage_B 2401.78-120.0d;
	 voltage_C 2401.78+120.0d;
	 bustype PQ;
}


object node {
	 name 403-1203449;
	 phases ABCN;
	 nominal_voltage 7970.00;
	 voltage_A 7970.00+0d;
	 voltage_B 7970.00-120.0d;
	 voltage_C 7970.00+120.0d;
	 bustype PQ;
}


object node {
	 name 403-470566;
	 phases ABCN;
	 nominal_voltage 7970.00;
	 voltage_A 7970.00+0d;
	 voltage_B 7970.00-120.0d;
	 voltage_C 7970.00+120.0d;
	 bustype PQ;
}


object node {
	 name 403-470567;
	 phases ABCN;
	 nominal_voltage 7970.00;
	 voltage_A 7970.00+0d;
	 voltage_B 7970.00-120.0d;
	 voltage_C 7970.00+120.0d;
	 bustype PQ;
}


object node {
	 name 403-520825;
	 phases ABCN;
	 nominal_voltage 7970.00;
	 voltage_A 7970.00+0d;
	 voltage_B 7970.00-120.0d;
	 voltage_C 7970.00+120.0d;
	 bustype PQ;
}


object node {
	 name 403-520826;
	 phases ABCN;
	 nominal_voltage 7970.00;
	 voltage_A 7970.00+0d;
	 voltage_B 7970.00-120.0d;
	 voltage_C 7970.00+120.0d;
	 bustype PQ;
}


object node {
	 name 403-520827;
	 phases ABCN;
	 nominal_voltage 7970.00;
	 voltage_A 7970.00+0d;
	 voltage_B 7970.00-120.0d;
	 voltage_C 7970.00+120.0d;
	 bustype PQ;
}


object node {
	 name 403-520828;
	 phases ABCN;
	 nominal_voltage 7970.00;
	 voltage_A 7970.00+0d;
	 voltage_B 7970.00-120.0d;
	 voltage_C 7970.00+120.0d;
	 bustype PQ;
}


object node {
	 name 403-520830;
	 phases ABCN;
	 nominal_voltage 7970.00;
	 voltage_A 7970.00+0d;
	 voltage_B 7970.00-120.0d;
	 voltage_C 7970.00+120.0d;
	 bustype PQ;
}


object node {
	 name 403-520831;
	 phases ABCN;
	 nominal_voltage 7970.00;
	 voltage_A 7970.00+0d;
	 voltage_B 7970.00-120.0d;
	 voltage_C 7970.00+120.0d;
	 bustype PQ;
}


object node {
	 name 403-520833;
	 phases ABCN;
	 nominal_voltage 7970.00;
	 voltage_A 7970.00+0d;
	 voltage_B 7970.00-120.0d;
	 voltage_C 7970.00+120.0d;
	 bustype PQ;
}


object node {
	 name 403-520834;
	 phases ABCN;
	 nominal_voltage 7970.00;
	 voltage_A 7970.00+0d;
	 voltage_B 7970.00-120.0d;
	 voltage_C 7970.00+120.0d;
	 bustype PQ;
}


object node {
	 name 403-520836;
	 phases ABCN;
	 nominal_voltage 7970.00;
	 voltage_A 7970.00+0d;
	 voltage_B 7970.00-120.0d;
	 voltage_C 7970.00+120.0d;
	 bustype PQ;
}


object node {
	 name 403-520837;
	 phases ABCN;
	 nominal_voltage 7970.00;
	 voltage_A 7970.00+0d;
	 voltage_B 7970.00-120.0d;
	 voltage_C 7970.00+120.0d;
	 bustype PQ;
}


object node {
	 name 403-520838;
	 phases ABCN;
	 nominal_voltage 7970.00;
	 voltage_A 7970.00+0d;
	 voltage_B 7970.00-120.0d;
	 voltage_C 7970.00+120.0d;
	 bustype PQ;
}


object node {
	 name 403-520839;
	 phases ABCN;
	 nominal_voltage 7970.00;
	 voltage_A 7970.00+0d;
	 voltage_B 7970.00-120.0d;
	 voltage_C 7970.00+120.0d;
	 bustype PQ;
}


object node {
	 name 403-521113;
	 phases ABCN;
	 nominal_voltage 7970.00;
	 voltage_A 7970.00+0d;
	 voltage_B 7970.00-120.0d;
	 voltage_C 7970.00+120.0d;
	 bustype PQ;
}


object node {
	 name 403-521114;
	 phases ABCN;
	 nominal_voltage 7970.00;
	 voltage_A 7970.00+0d;
	 voltage_B 7970.00-120.0d;
	 voltage_C 7970.00+120.0d;
	 bustype PQ;
}


object node {
	 name 403-521116;
	 phases ABCN;
	 nominal_voltage 7970.00;
	 voltage_A 7970.00+0d;
	 voltage_B 7970.00-120.0d;
	 voltage_C 7970.00+120.0d;
	 bustype PQ;
}


object node {
	 name 403-618762;
	 phases ABCN;
	 nominal_voltage 7970.00;
	 voltage_A 7970.00+0d;
	 voltage_B 7970.00-120.0d;
	 voltage_C 7970.00+120.0d;
	 bustype PQ;
}


object node {
	 name 403-695209;
	 phases ABCN;
	 nominal_voltage 7970.00;
	 voltage_A 7970.00+0d;
	 voltage_B 7970.00-120.0d;
	 voltage_C 7970.00+120.0d;
	 bustype PQ;
}


object node {
	 name 406-905990;
	 phases ABCN;
	 nominal_voltage 2401.78;
	 voltage_A 2401.78+0d;
	 voltage_B 2401.78-120.0d;
	 voltage_C 2401.78+120.0d;
	 bustype PQ;
}


object node {
	 name 409-401941;
	 phases ABCN;
	 nominal_voltage 2401.78;
	 voltage_A 2401.78+0d;
	 voltage_B 2401.78-120.0d;
	 voltage_C 2401.78+120.0d;
	 bustype PQ;
}


object node {
	 name 416-32980;
	 phases ABCN;
	 nominal_voltage 7970.00;
	 voltage_A 7970.00+0d;
	 voltage_B 7970.00-120.0d;
	 voltage_C 7970.00+120.0d;
	 bustype PQ;
}


object node {
	 name 500-230227;
	 phases ABCN;
	 nominal_voltage 7970.00;
	 voltage_A 7970.00+0d;
	 voltage_B 7970.00-120.0d;
	 voltage_C 7970.00+120.0d;
	 bustype PQ;
}


object node {
	 name 500-625939;
	 phases ABCN;
	 nominal_voltage 7970.00;
	 voltage_A 7970.00+0d;
	 voltage_B 7970.00-120.0d;
	 voltage_C 7970.00+120.0d;
	 bustype PQ;
}


object node {
	 name 500-709718;
	 phases ABCN;
	 nominal_voltage 7970.00;
	 voltage_A 7970.00+0d;
	 voltage_B 7970.00-120.0d;
	 voltage_C 7970.00+120.0d;
	 bustype PQ;
}


object node {
	 name 500-709719;
	 phases ABCN;
	 nominal_voltage 7970.00;
	 voltage_A 7970.00+0d;
	 voltage_B 7970.00-120.0d;
	 voltage_C 7970.00+120.0d;
	 bustype PQ;
}


object node {
	 name 500-712882;
	 phases ABCN;
	 nominal_voltage 7970.00;
	 voltage_A 7970.00+0d;
	 voltage_B 7970.00-120.0d;
	 voltage_C 7970.00+120.0d;
	 bustype PQ;
}


object node {
	 name 500-933236;
	 phases ABCN;
	 nominal_voltage 7970.00;
	 voltage_A 7970.00+0d;
	 voltage_B 7970.00-120.0d;
	 voltage_C 7970.00+120.0d;
	 bustype PQ;
}


object node {
	 name 500-933238;
	 phases AN;
	 nominal_voltage 2401.78;
	 voltage_A 2401.78+0d;
	 bustype PQ;
}


object node {
	 name 500-933240;
	 phases BN;
	 nominal_voltage 2401.78;
	 voltage_B 2401.78-120.0d;
	 bustype PQ;
}


object node {
	 name 500-933242;
	 phases CN;
	 nominal_voltage 2401.78;
	 voltage_C 2401.78+120.0d;
	 bustype PQ;
}


object node {
	 name SPU125;
	 phases ABCN;
	 nominal_voltage 7970.00;
	 voltage_A 7970.00+0d;
	 voltage_B 7970.00-120.0d;
	 voltage_C 7970.00+120.0d;
	 bustype SWING;
}


object node {
	 name Breaker_392-106294;
	 phases ABC;
	 nominal_voltage 2401.78;
	 voltage_A 2401.78+0d;
	 voltage_B 2401.78-120.0d;
	 voltage_C 2401.78+120.0d;
	 bustype PQ;
}


object node {
	 name Breaker_392-106314;
	 phases ABC;
	 nominal_voltage 2401.78;
	 voltage_A 2401.78+0d;
	 voltage_B 2401.78-120.0d;
	 voltage_C 2401.78+120.0d;
	 bustype PQ;
}


object node {
	 name Breaker_392-89014;
	 phases ABCN;
	 nominal_voltage 7970.00;
	 voltage_A 7970.00+0d;
	 voltage_B 7970.00-120.0d;
	 voltage_C 7970.00+120.0d;
	 bustype PQ;
}


object node {
	 name Breaker_392-89655;
	 phases ABCN;
	 nominal_voltage 7970.00;
	 voltage_A 7970.00+0d;
	 voltage_B 7970.00-120.0d;
	 voltage_C 7970.00+120.0d;
	 bustype PQ;
}


object node {
	 name Breaker_416-32980;
	 phases ABCN;
	 nominal_voltage 7970.00;
	 voltage_A 7970.00+0d;
	 voltage_B 7970.00-120.0d;
	 voltage_C 7970.00+120.0d;
	 bustype PQ;
}


object node {
	 name Fuse_402-619382;
	 phases BN;
	 nominal_voltage 2401.78;
	 voltage_B 2401.78-120.0d;
	 bustype PQ;
}


object node {
	 name Reg_SPU125;
	 phases ABCN;
	 nominal_voltage 7970.00;
	 voltage_A 7970.00+0d;
	 voltage_B 7970.00-120.0d;
	 voltage_C 7970.00+120.0d;
	 bustype PQ;
}


object node {
	 name SW_403-618762;
	 phases ABCN;
	 nominal_voltage 7970.00;
	 voltage_A 7970.00+0d;
	 voltage_B 7970.00-120.0d;
	 voltage_C 7970.00+120.0d;
	 bustype PQ;
}


object node {
	 name SW_409-401941;
	 phases ABCN;
	 nominal_voltage 2401.78;
	 voltage_A 2401.78+0d;
	 voltage_B 2401.78-120.0d;
	 voltage_C 2401.78+120.0d;
	 bustype PQ;
}


object node {
	 name SW_500-933236;
	 phases ABCN;
	 nominal_voltage 7970.00;
	 voltage_A 7970.00+0d;
	 voltage_B 7970.00-120.0d;
	 voltage_C 7970.00+120.0d;
	 bustype PQ;
}


object node {
	 name Xfmr_409-401941;
	 phases ABCN;
	 nominal_voltage 2401.78;
	 voltage_A 2401.78+0d;
	 voltage_B 2401.78-120.0d;
	 voltage_C 2401.78+120.0d;
	 bustype PQ;
}


