SPU125_glm/OH_Line_Configuration_SPU125.glm
//**Overhead  Line configuration forSPU125:


object line_configuration {
	 name overhead_line_config_ABCN_112_112;
	 z11 0.298667+1.120667j;
	 z12 0.167667+0.494667j;
	 z13 0.167667+0.494667j;
	 z21 0.167667+0.494667j;
	 z22 0.298667+1.120667j;
	 z23 0.167667+0.494667j;
	 z31 0.167667+0.494667j;
	 z32 0.167667+0.494667j;
	 z33 0.298667+1.120667j;
	 }

object line_configuration {
	 name overhead_line_config_ABCN_128_112;
	 z11 0.298667+1.120667j;
	 z12 0.167667+0.494667j;
	 z13 0.167667+0.494667j;
	 z21 0.167667+0.494667j;
	 z22 0.298667+1.120667j;
	 z23 0.167667+0.494667j;
	 z31 0.167667+0.494667j;
	 z32 0.167667+0.494667j;
	 z33 0.298667+1.120667j;
	 }

object line_configuration {
	 name overhead_line_config_ABCN_128_128;
	 z11 2.725333+1.501667j;
	 z12 0.202333+0.635667j;
	 z13 0.202333+0.635667j;
	 z21 0.202333+0.635667j;
	 z22 2.725333+1.501667j;
	 z23 0.202333+0.635667j;
	 z31 0.202333+0.635667j;
	 z32 0.202333+0.635667j;
	 z33 2.725333+1.501667j;
	 }

object line_configuration {
	 name overhead_line_config_ABCN_128_90;
	 z11 0.345667+1.151733j;
	 z12 0.159667+0.506133j;
	 z13 0.159667+0.506133j;
	 z21 0.159667+0.506133j;
	 z22 0.345667+1.151733j;
	 z23 0.159667+0.506133j;
	 z31 0.159667+0.506133j;
	 z32 0.159667+0.506133j;
	 z33 0.345667+1.151733j;
	 }

object line_configuration {
	 name overhead_line_config_ABCN_39_112;
	 z11 0.298667+1.120667j;
	 z12 0.167667+0.494667j;
	 z13 0.167667+0.494667j;
	 z21 0.167667+0.494667j;
	 z22 0.298667+1.120667j;
	 z23 0.167667+0.494667j;
	 z31 0.167667+0.494667j;
	 z32 0.167667+0.494667j;
	 z33 0.298667+1.120667j;
	 }

object line_configuration {
	 name overhead_line_config_ABCN_39_90;
	 z11 0.345667+1.151733j;
	 z12 0.159667+0.506133j;
	 z13 0.159667+0.506133j;
	 z21 0.159667+0.506133j;
	 z22 0.345667+1.151733j;
	 z23 0.159667+0.506133j;
	 z31 0.159667+0.506133j;
	 z32 0.159667+0.506133j;
	 z33 0.345667+1.151733j;
	 }

object line_configuration {
	 name overhead_line_config_ABCN_73_112;
	 z11 0.298667+1.120667j;
	 z12 0.167667+0.494667j;
	 z13 0.167667+0.494667j;
	 z21 0.167667+0.494667j;
	 z22 0.298667+1.120667j;
	 z23 0.167667+0.494667j;
	 z31 0.167667+0.494667j;
	 z32 0.167667+0.494667j;
	 z33 0.298667+1.120667j;
	 }

object line_configuration {
	 name overhead_line_config_ABCN_82_79;
	 z11 2.660000+1.500000j;
	 z12 0.201000+0.637500j;
	 z13 0.201000+0.637500j;
	 z21 0.201000+0.637500j;
	 z22 2.660000+1.500000j;
	 z23 0.201000+0.637500j;
	 z31 0.201000+0.637500j;
	 z32 0.201000+0.637500j;
	 z33 2.660000+1.500000j;
	 }

object line_configuration {
	 name overhead_line_config_ABC_128_128;
	 z11 2.725333+1.501667j;
	 z12 0.202333+0.635667j;
	 z13 0.202333+0.635667j;
	 z21 0.202333+0.635667j;
	 z22 2.725333+1.501667j;
	 z23 0.202333+0.635667j;
	 z31 0.202333+0.635667j;
	 z32 0.202333+0.635667j;
	 z33 2.725333+1.501667j;
	 }

