SPU125_glm/UG_Line_Configuration_SPU125.glm
//**Underground Line configuration forSPU125:


object line_configuration {
	 name underground_line_config_AN_104_104;
	 z11 0.406667+0.301667j;
	 z12 0.136667-0.024333j;
	 z13 0.136667-0.024333j;
	 z21 0.136667-0.024333j;
	 z22 0.406667+0.301667j;
	 z23 0.136667-0.024333j;
	 z31 0.136667-0.024333j;
	 z32 0.136667-0.024333j;
	 z33 0.406667+0.301667j;
	 }

object line_configuration {
	 name underground_line_config_AN_128_128;
	 z11 2.725333+1.501667j;
	 z12 0.202333+0.635667j;
	 z13 0.202333+0.635667j;
	 z21 0.202333+0.635667j;
	 z22 2.725333+1.501667j;
	 z23 0.202333+0.635667j;
	 z31 0.202333+0.635667j;
	 z32 0.202333+0.635667j;
	 z33 2.725333+1.501667j;
	 }

object line_configuration {
	 name underground_line_config_BN_104_104;
	 z11 0.406667+0.301667j;
	 z12 0.136667-0.024333j;
	 z13 0.136667-0.024333j;
	 z21 0.136667-0.024333j;
	 z22 0.406667+0.301667j;
	 z23 0.136667-0.024333j;
	 z31 0.136667-0.024333j;
	 z32 0.136667-0.024333j;
	 z33 0.406667+0.301667j;
	 }

object line_configuration {
	 name underground_line_config_BN_128_128;
	 z11 2.725333+1.501667j;
	 z12 0.202333+0.635667j;
	 z13 0.202333+0.635667j;
	 z21 0.202333+0.635667j;
	 z22 2.725333+1.501667j;
	 z23 0.202333+0.635667j;
	 z31 0.202333+0.635667j;
	 z32 0.202333+0.635667j;
	 z33 2.725333+1.501667j;
	 }

object line_configuration {
	 name underground_line_config_CN_104_104;
	 z11 0.406667+0.301667j;
	 z12 0.136667-0.024333j;
	 z13 0.136667-0.024333j;
	 z21 0.136667-0.024333j;
	 z22 0.406667+0.301667j;
	 z23 0.136667-0.024333j;
	 z31 0.136667-0.024333j;
	 z32 0.136667-0.024333j;
	 z33 0.406667+0.301667j;
	 }

object line_configuration {
	 name underground_line_config_CN_128_128;
	 z11 2.725333+1.501667j;
	 z12 0.202333+0.635667j;
	 z13 0.202333+0.635667j;
	 z21 0.202333+0.635667j;
	 z22 2.725333+1.501667j;
	 z23 0.202333+0.635667j;
	 z31 0.202333+0.635667j;
	 z32 0.202333+0.635667j;
	 z33 2.725333+1.501667j;
	 }

